CV

Domaines de compétences

Technologie par impulsion magnétique (T.I.M.)
Conception d'outillages et de produits
CAO avec le logiciel Solidworks™ (volumique et surfacique)

Expérience professionnelle

2008 - Plateforme de Transfert Technologique INNOVALTECH, dépt : 02, ingénieur d'études
* conception, essais, mises au point et modélisations sur la Technologie par impulsion magnétique (T.I.M. pour sertissage/soudage/formage/découpage) sur une trentaine d'applications industrielles :
* conception de produits et d'outillages ; mise place d'essais de faisabilité ; métallographie ; sensibilité aux problèmes électromagnétiques et mécaniques liés aux matériaux ; simulation des phénomènes électromagnétiques
* simulation mécanique statique, dynamique explicite et implicite (LS-Dyna™, ANSYS™) et multiphysique (essentiellement LS-Dyna™)
* Conception de produits - sensibilité aux problèmes d'Usinage Grande Vitesse, rétro-conception (bonne maîtrise de Solidworks™ et Géomagic™)
* Mesure et exploitation de résultats avec caméra thermique haute vitesse.
* Prototypage rapide - duplication plastique et métal
* Métrologie - sur machine à commande numérique Hexagon™ Advantage - logiciel PCDMIS™ V3.7 et 2017
* Participation au projet de recherche «MSIM (Maîtrise du Système par Impulsions Magnétiques)», 2010-2011
* Participation au projet de recherche «Embolothérapie», 2009-2011
* Participation au projet de recherche « DEHT – Décharge Électrique Haute Tension »
* Participation au projet de recherche « COILTIM (thématique sur la maîtrise de la conception d'outillages pour la technologie par impulsions magnétiques), 2015-2017
* Participation au projet européen « JoinEM – assemblage d’aluminium et de cuivre », http://www.join-em.eu/

Formation

2001 Baccalauréat Scientifique
2004 DUT GMP (Génie Mécanique et Productique)
05/2003 - 06/2003 Etude de la propagation de vibrations mécaniques dans les plaques de différents matériaux University of Paisley (Écosse)
05/2004 - 06/2004 Aménagement d'un laboratoire pour des essais sur moteurs thermiques NEWI (North East Wales Institute) Wrexham (Pays de Galles)
2005 Licence Sciences pour l'ingénieur
2008 Licence professionnelle "ingénieur en conception informatisée"
2017 Master "Conception et Simulation des Produits"

Aptitudes linguistiques et informatiques

Bon niveau en anglais
Maîtrise du logiciel Solidworks™ (volumique et surfacique) ; expérience avec le module de simulation par éléments finis
Solidworks™ Simulation, Ansys™ et LS-Dyna™
Bonne maîtrise du logiciel Catia™ V5
Bonne maîtrise des logiciels de traitement de texte, des tableurs et des compositeurs de diaporamas
Connaissance de base de l'application graphique Photoshop™
Compétences en réseau informatique, mise en place de différents types de serveurs
Compétences en dépannage software (Linix/Debian et Windows™) et hardware

Loisirs

Pratique du VTT (cross-country) ; bricolage ; Musique : clarinette et guitare ; Lecture : bandes dessinées ; paint-ball
Métrologie - Impression 3D FDM et SLA
